networks/opendss/CKT_2747_11565.dss
! OpenDSS script generated from multiconductor network
Clear

New Circuit.mc_network basekv=12.0 pu=1.000000 angle=0.00 frequency=60.0 phases=3 Mvasc3=143993 Mvasc1=47997.6
~ bus1=-8888882179936.1.2.3

! Line codes
New LineCode.6_CU_3PH_12KV_3 nphases=3 units=km Rmatrix=[ 0.069824 | 0 0.069824 | 0 0 0.069824 ] Xmatrix=[ 0.02475 | 0 0.02475 | 0 0 0.02475 ] Cmatrix=[ 0 | 0 0 | 0 0 0 ]
New LineCode.6_CU_2PH_12KV_2 nphases=2 units=km Rmatrix=[ 0.2268 | 0 0.2268 ] Xmatrix=[ 0.080391 | 0 0.080391 ] Cmatrix=[ 0 | 0 0 ]
New LineCode.4_ACSR_3PH_12KV_3 nphases=3 units=km Rmatrix=[ 0.05273 | 0 0.05273 | 0 0 0.05273 ] Xmatrix=[ 0.019349 | 0 0.019349 | 0 0 0.019349 ] Cmatrix=[ 0 | 0 0 | 0 0 0 ]
New LineCode.4_ACSR_2PH_12KV_2 nphases=2 units=km Rmatrix=[ 0.059284 | 0 0.059284 ] Xmatrix=[ 0.021754 | 0 0.021754 ] Cmatrix=[ 0 | 0 0 ]
New LineCode.336_ACSR_2PH_12KV_2 nphases=2 units=km Rmatrix=[ 0.012401 | 0 0.012401 ] Xmatrix=[ 0.027771 | 0 0.027771 ] Cmatrix=[ 0 | 0 0 ]
New LineCode.1/0_ACSR_2PH_12KV_2 nphases=2 units=km Rmatrix=[ 0.023408 | 0 0.023408 ] Xmatrix=[ 0.018637 | 0 0.018637 ] Cmatrix=[ 0 | 0 0 ]
New LineCode.1000_JCN_3PH_12KV_3 nphases=3 units=km Rmatrix=[ 0.00024 | 0 0.00024 | 0 0 0.00024 ] Xmatrix=[ 0.000364 | 0 0.000364 | 0 0 0.000364 ] Cmatrix=[ 0 | 0 0 | 0 0 0 ]
New LineCode.1000_CLP_3PH_12KV_3 nphases=3 units=km Rmatrix=[ 0.000387 | 0 0.000387 | 0 0 0.000387 ] Xmatrix=[ 0.000586 | 0 0.000586 | 0 0 0.000586 ] Cmatrix=[ 0 | 0 0 | 0 0 0 ]
New LineCode.__3PH_12KV_3 nphases=3 units=km Rmatrix=[ 1e-05 | 0 1e-05 | 0 0 1e-05 ] Xmatrix=[ 1e-05 | 0 1e-05 | 0 0 1e-05 ] Cmatrix=[ 0 | 0 0 | 0 0 0 ]
New LineCode.350_AL_3PH_12KV_3 nphases=3 units=km Rmatrix=[ 0.0045 | 0 0.0045 | 0 0 0.0045 ] Xmatrix=[ 0.003419 | 0 0.003419 | 0 0 0.003419 ] Cmatrix=[ 0 | 0 0 | 0 0 0 ]
New LineCode.1/0_ACSR_3PH_12KV_3 nphases=3 units=km Rmatrix=[ 0.025524 | 0 0.025524 | 0 0 0.025524 ] Xmatrix=[ 0.020322 | 0 0.020322 | 0 0 0.020322 ] Cmatrix=[ 0 | 0 0 | 0 0 0 ]
New LineCode.336_ACSR_3PH_336_ACSR_N_12KV_4 nphases=4 units=km Rmatrix=[ 0.002757 | 0 0.002757 | 0 0 0.002757 | 0 0 0 0.002757 ] Xmatrix=[ 0.005499 | 0 0.005499 | 0 0 0.005499 | 0 0 0 0.005499 ] Cmatrix=[ 0 | 0 0 | 0 0 0 | 0 0 0 0 ]
New LineCode.2_CLP_1PH_12KV_1 nphases=1 units=km Rmatrix=[ 0.210215 ] Xmatrix=[ 0.044309 ] Cmatrix=[ 0 ]
New LineCode.350_CLP_1PH_12KV_1 nphases=1 units=km Rmatrix=[ 0.015295 ] Xmatrix=[ 0.011621 ] Cmatrix=[ 0 ]
New LineCode.336_ACSR_3PH_12KV_3 nphases=3 units=km Rmatrix=[ 0.007927 | 0 0.007927 | 0 0 0.007927 ] Xmatrix=[ 0.017752 | 0 0.017752 | 0 0 0.017752 ] Cmatrix=[ 0 | 0 0 | 0 0 0 ]
New LineCode.1/0_CLP_3PH_12KV_3 nphases=3 units=km Rmatrix=[ 0.036888 | 0 0.036888 | 0 0 0.036888 ] Xmatrix=[ 0.011275 | 0 0.011275 | 0 0 0.011275 ] Cmatrix=[ 0 | 0 0 | 0 0 0 ]
New LineCode.2_AL_3PH_12KV_3 nphases=3 units=km Rmatrix=[ 0.046488 | 0 0.046488 | 0 0 0.046488 ] Xmatrix=[ 0.009799 | 0 0.009799 | 0 0 0.009799 ] Cmatrix=[ 0 | 0 0 | 0 0 0 ]
New LineCode.750_CLP_3PH_12KV_3 nphases=3 units=km Rmatrix=[ 0.003226 | 0 0.003226 | 0 0 0.003226 ] Xmatrix=[ 0.003962 | 0 0.003962 | 0 0 0.003962 ] Cmatrix=[ 0 | 0 0 | 0 0 0 ]
New LineCode.1/0_CLP_1PH_12KV_1 nphases=1 units=km Rmatrix=[ 0.040332 ] Xmatrix=[ 0.012327 ] Cmatrix=[ 0 ]
New LineCode.1/0_CLP_2PH_12KV_2 nphases=2 units=km Rmatrix=[ 0.104586 | 0 0.104586 ] Xmatrix=[ 0.031966 | 0 0.031966 ] Cmatrix=[ 0 | 0 0 ]
New LineCode.2_CLP_3PH_12KV_3 nphases=3 units=km Rmatrix=[ 0.005731 | 0 0.005731 | 0 0 0.005731 ] Xmatrix=[ 0.001208 | 0 0.001208 | 0 0 0.001208 ] Cmatrix=[ 0 | 0 0 | 0 0 0 ]
New LineCode.350_AL_1PH_12KV_1 nphases=1 units=km Rmatrix=[ 0.024444 ] Xmatrix=[ 0.018573 ] Cmatrix=[ 0 ]
New LineCode.350_AL_2PH_12KV_2 nphases=2 units=km Rmatrix=[ 0.022238 | 0 0.022238 ] Xmatrix=[ 0.016896 | 0 0.016896 ] Cmatrix=[ 0 | 0 0 ]
New LineCode.2_CLP_2PH_12KV_2 nphases=2 units=km Rmatrix=[ 0.144519 | 0 0.144519 ] Xmatrix=[ 0.030462 | 0 0.030462 ] Cmatrix=[ 0 | 0 0 ]
New LineCode.350_CLP_3PH_12KV_3 nphases=3 units=km Rmatrix=[ 0.010575 | 0 0.010575 | 0 0 0.010575 ] Xmatrix=[ 0.008035 | 0 0.008035 | 0 0 0.008035 ] Cmatrix=[ 0 | 0 0 | 0 0 0 ]
New LineCode.1/0_AL_1PH_12KV_1 nphases=1 units=km Rmatrix=[ 0.071538 ] Xmatrix=[ 0.021865 ] Cmatrix=[ 0 ]
New LineCode.4_CU_2PH_12KV_2 nphases=2 units=km Rmatrix=[ 0.0049 | 0 0.0049 ] Xmatrix=[ 0.002671 | 0 0.002671 ] Cmatrix=[ 0 | 0 0 ]
New LineCode.4_ACSR_3PH_4_ACSR_N_12KV_4 nphases=4 units=km Rmatrix=[ 0.037125 | 0 0.037125 | 0 0 0.037125 | 0 0 0 0.037125 ] Xmatrix=[ 0.012487 | 0 0.012487 | 0 0 0.012487 | 0 0 0 0.012487 ] Cmatrix=[ 0 | 0 0 | 0 0 0 | 0 0 0 0 ]
New LineCode.336_ACSR_2PH_336_ACSR_N_12KV_3_N nphases=3 units=km Rmatrix=[ 0.000319 | 0 0.000319 | 0 0 0.000319 ] Xmatrix=[ 0.000636 | 0 0.000636 | 0 0 0.000636 ] Cmatrix=[ 0 | 0 0 | 0 0 0 ]
New LineCode.1/0_ACSR_3PH_1/0_ACSR_N_12KV_4 nphases=4 units=km Rmatrix=[ 0.057358 | 0 0.057358 | 0 0 0.057358 | 0 0 0 0.057358 ] Xmatrix=[ 0.041452 | 0 0.041452 | 0 0 0.041452 | 0 0 0 0.041452 ] Cmatrix=[ 0 | 0 0 | 0 0 0 | 0 0 0 0 ]
New LineCode.2_ACSR_2PH_12KV_2 nphases=2 units=km Rmatrix=[ 0.005581 | 0 0.005581 ] Xmatrix=[ 0.003 | 0 0.003 ] Cmatrix=[ 0 | 0 0 ]
New LineCode.1/0_ACSR_2PH_1/0_ACSR_N_12KV_3_N nphases=3 units=km Rmatrix=[ 0.037565 | 0 0.037565 | 0 0 0.037565 ] Xmatrix=[ 0.027148 | 0 0.027148 | 0 0 0.027148 ] Cmatrix=[ 0 | 0 0 | 0 0 0 ]
New LineCode.1/0_AL_3PH_12KV_3 nphases=3 units=km Rmatrix=[ 0.067778 | 0 0.067778 | 0 0 0.067778 ] Xmatrix=[ 0.020716 | 0 0.020716 | 0 0 0.020716 ] Cmatrix=[ 0 | 0 0 | 0 0 0 ]
New LineCode.2_JCN_3PH_12KV_3 nphases=3 units=km Rmatrix=[ 0.186261 | 0 0.186261 | 0 0 0.186261 ] Xmatrix=[ 0.03926 | 0 0.03926 | 0 0 0.03926 ] Cmatrix=[ 0 | 0 0 | 0 0 0 ]
New LineCode.1/0_JCN_2PH_12KV_2 nphases=2 units=km Rmatrix=[ 0.041048 | 0 0.041048 ] Xmatrix=[ 0.012546 | 0 0.012546 ] Cmatrix=[ 0 | 0 0 ]
New LineCode.4_CU_3PH_12KV_3 nphases=3 units=km Rmatrix=[ 0.022945 | 0 0.022945 | 0 0 0.022945 ] Xmatrix=[ 0.012505 | 0 0.012505 | 0 0 0.012505 ] Cmatrix=[ 0 | 0 0 | 0 0 0 ]

! Lines
New Line.951357E$P5382416-1 phases=3 Bus1=43053640.1.2.3 Bus2=43035796.1.2.3 LineCode=6_CU_3PH_12KV_3 Length=0.017414 units=km
New Line.1002017E$ND238473137 phases=2 Bus1=37695356.1.2 Bus2=-77777737695356.1.2 LineCode=6_CU_2PH_12KV_2 Length=0.018261 units=km
New Line.1121176E$ND43105143 phases=3 Bus1=43036036.1.2.3 Bus2=-77777743036036.1.2.3 LineCode=4_ACSR_3PH_12KV_3 Length=0.034563 units=km
New Line.4669261E$ND238636451 phases=2 Bus1=43036186.2.3 Bus2=-77777743036186.2.3 LineCode=4_ACSR_2PH_12KV_2 Length=0.057392 units=km
New Line.1014188E$ND238634703 phases=2 Bus1=43036236.2.3 Bus2=-77777743036236.2.3 LineCode=6_CU_2PH_12KV_2 Length=0.020181 units=km
New Line.1022025E$ND238636431 phases=2 Bus1=43053410.1.3 Bus2=-77777743053410.1.3 LineCode=336_ACSR_2PH_12KV_2 Length=0.066457 units=km
New Line.1014194E$ND238636543 phases=2 Bus1=43036211.2.3 Bus2=-77777743036211.2.3 LineCode=1/0_ACSR_2PH_12KV_2 Length=0.036573 units=km
New Line.M5015063T3$ND245278361 phases=3 Bus1=245278361.1.2.3 Bus2=245278338.1.2.3 LineCode=1000_JCN_3PH_12KV_3 Length=0.002057 units=km
New Line.ND245278361$M5015063T4 phases=3 Bus1=245278361.1.2.3 Bus2=245278391.1.2.3 LineCode=1000_CLP_3PH_12KV_3 Length=0.00431 units=km
New Line.GS0255-2$M5015063T3 phases=3 Bus1=245278337.1.2.3 Bus2=245277794.1.2.3 LineCode=__3PH_12KV_3 Length=0.031215 units=km
New Line.M5015063T4$M5015063T5 phases=3 Bus1=245278390.1.2.3 Bus2=245278444.1.2.3 LineCode=1000_CLP_3PH_12KV_3 Length=0.037433 units=km
New Line.ND245278231$M5015063T5 phases=3 Bus1=245278443.1.2.3 Bus2=245278231.1.2.3 LineCode=1000_CLP_3PH_12KV_3 Length=0.004719 units=km
New Line.2115867E$ND245278231 phases=3 Bus1=245278231.1.2.3 Bus2=245278208.1.2.3 LineCode=1000_JCN_3PH_12KV_3 Length=0.002849 units=km
New Line.PH867E$ND245278231 phases=3 Bus1=245278231.1.2.3 Bus2=43054061.1.2.3 LineCode=1000_CLP_3PH_12KV_3 Length=0.13459 units=km
New Line.GS0255-4$2115867E phases=3 Bus1=245278209.1.2.3 Bus2=245277812.1.2.3 LineCode=__3PH_12KV_3 Length=0.042167 units=km
New Line.2115865E$P5364772-B phases=3 Bus1=43054023.1.2.3 Bus2=144730894.1.2.3 LineCode=350_AL_3PH_12KV_3 Length=0.047314 units=km
New Line.PS0364$ND43105309 phases=3 Bus1=43105309.1.2.3 Bus2=214958825.1.2.3 LineCode=1/0_ACSR_3PH_12KV_3 Length=0.037444 units=km
New Line.144730982$P5364772-A phases=3 Bus1=144730911.1.2.3 Bus2=144730985.1.2.3 LineCode=350_AL_3PH_12KV_3 Length=0.002248 units=km
New Line.PS0364$ND236704349 phases=4 Bus1=214958826.0.1.2.3 Bus2=236704349.0.1.2.3 LineCode=336_ACSR_3PH_336_ACSR_N_12KV_4 Length=0.073499 units=km
New Line.ND236704349$BF91543 phases=4 Bus1=236704349.0.1.2.3 Bus2=236704313.0.1.2.3 LineCode=336_ACSR_3PH_336_ACSR_N_12KV_4 Length=0.008558 units=km
New Line.767017E$ND236704349 phases=4 Bus1=236704349.0.1.2.3 Bus2=46778340.0.1.2.3 LineCode=336_ACSR_3PH_336_ACSR_N_12KV_4 Length=0.041272 units=km
New Line.144730982$144731001 phases=3 Bus1=144730984.1.2.3 Bus2=144731003.1.2.3 LineCode=350_AL_3PH_12KV_3 Length=0.228415 units=km
New Line.144731001$P5625002-1 phases=3 Bus1=144731004.1.2.3 Bus2=144731019.1.2.3 LineCode=350_AL_3PH_12KV_3 Length=0.001751 units=km
New Line.800093E$P5321675-1 phases=3 Bus1=37749360.1.2.3 Bus2=37693906.1.2.3 LineCode=350_AL_3PH_12KV_3 Length=0.03868 units=km
New Line.FC1364-1$107758454 phases=1 Bus1=107757937.1 Bus2=107758457.1 LineCode=2_CLP_1PH_12KV_1 Length=0.001582 units=km
New Line.PFC5353-1$ND170331655 phases=1 Bus1=95108303.3 Bus2=170331655.3 LineCode=2_CLP_1PH_12KV_1 Length=0.002491 units=km
New Line.B5329938-2$B5329939-1 phases=1 Bus1=43037246.2 Bus2=43037327.2 LineCode=350_CLP_1PH_12KV_1 Length=0.080076 units=km
New Line.PS0368$4881842E phases=3 Bus1=216246512.1.2.3 Bus2=216246567.1.2.3 LineCode=336_ACSR_3PH_12KV_3 Length=0.027556 units=km
New Line.4881842E$ND216246538 phases=3 Bus1=216246567.1.2.3 Bus2=216246538.1.2.3 LineCode=336_ACSR_3PH_12KV_3 Length=0.003508 units=km
New Line.95108876$ND170331655 phases=1 Bus1=170331655.3 Bus2=95108879.3 LineCode=2_CLP_1PH_12KV_1 Length=0.006278 units=km
New Line.ND170331655$95109093 phases=1 Bus1=170331655.3 Bus2=95109096.3 LineCode=2_CLP_1PH_12KV_1 Length=0.002217 units=km
New Line.107758454$ND108290797 phases=1 Bus1=107758456.1 Bus2=108290797.1 LineCode=2_CLP_1PH_12KV_1 Length=0.004656 units=km
New Line.ND43125058$GS9328-1 phases=3 Bus1=239770258.1.2.3 Bus2=43125058.1.2.3 LineCode=1/0_CLP_3PH_12KV_3 Length=0.010077 units=km
New Line.ND108290797$107758479 phases=1 Bus1=108290797.1 Bus2=107758481.1 LineCode=2_CLP_1PH_12KV_1 Length=0.043642 units=km
New Line.ND108290797$108290805 phases=1 Bus1=108290797.1 Bus2=108290807.1 LineCode=2_CLP_1PH_12KV_1 Length=0.139901 units=km
New Line.P5016710-2$FD36358 phases=3 Bus1=37695224.1.2.3 Bus2=37696943.1.2.3 LineCode=2_AL_3PH_12KV_3 Length=0.041563 units=km
New Line.B5329937-2$B5329938-1 phases=1 Bus1=43037318.2 Bus2=43037399.2 LineCode=350_CLP_1PH_12KV_1 Length=0.068883 units=km
New Line.ND43105604$ND43125058 phases=3 Bus1=43125058.1.2.3 Bus2=43105604.1.2.3 LineCode=1/0_CLP_3PH_12KV_3 Length=0.173607 units=km
New Line.ND43105974$GS9328-4 phases=3 Bus1=239770285.1.2.3 Bus2=43105974.1.2.3 LineCode=750_CLP_3PH_12KV_3 Length=0.02875 units=km
New Line.ND43125058$ND43106839 phases=3 Bus1=43125058.1.2.3 Bus2=43106839.1.2.3 LineCode=1/0_CLP_3PH_12KV_3 Length=0.051681 units=km
New Line.95108876$95108841 phases=1 Bus1=95108878.3 Bus2=95108843.3 LineCode=2_CLP_1PH_12KV_1 Length=0.031943 units=km
New Line.95109093$ND95109076 phases=1 Bus1=95109095.3 Bus2=95109076.3 LineCode=2_CLP_1PH_12KV_1 Length=0.064691 units=km
New Line.P5157550-2$PH028 phases=3 Bus1=43054120.1.2.3 Bus2=43035683.1.2.3 LineCode=350_AL_3PH_12KV_3 Length=0.033899 units=km
New Line.ND43106839$P5158110-1 phases=3 Bus1=43106839.1.2.3 Bus2=43038105.1.2.3 LineCode=1/0_CLP_3PH_12KV_3 Length=0.052142 units=km
New Line.ND43105604$BS1170-1 phases=1 Bus1=43105604.3 Bus2=43038153.3 LineCode=1/0_CLP_1PH_12KV_1 Length=0.057112 units=km
New Line.ND43106839$BS8189-1 phases=3 Bus1=43106839.1.2.3 Bus2=43051989.1.2.3 LineCode=1/0_CLP_3PH_12KV_3 Length=0.206332 units=km
New Line.ND43105974$954E phases=3 Bus1=43105974.1.2.3 Bus2=43052564.1.2.3 LineCode=750_CLP_3PH_12KV_3 Length=0.048539 units=km
New Line.ND43105604$ND43105605 phases=3 Bus1=43105604.1.2.3 Bus2=43105605.1.2.3 LineCode=1/0_CLP_3PH_12KV_3 Length=0.059488 units=km
New Line.ND95109076$95109118 phases=1 Bus1=95109076.3 Bus2=95109120.3 LineCode=2_CLP_1PH_12KV_1 Length=0.05932 units=km
New Line.95109143$ND95109076 phases=1 Bus1=95109076.3 Bus2=95109145.3 LineCode=2_CLP_1PH_12KV_1 Length=0.134402 units=km
New Line.107758479$P5571366-2 phases=1 Bus1=107758482.1 Bus2=107757990.1 LineCode=2_CLP_1PH_12KV_1 Length=0.001746 units=km
New Line.108290805$P5571365-1 phases=1 Bus1=108290808.1 Bus2=108290725.1 LineCode=2_CLP_1PH_12KV_1 Length=0.000958 units=km
New Line.ND43105605$BS1169-1 phases=1 Bus1=43105605.1 Bus2=43038203.1 LineCode=1/0_CLP_1PH_12KV_1 Length=0.004901 units=km
New Line.ND43105605$BS1168-1 phases=1 Bus1=43105605.2 Bus2=43051651.2 LineCode=1/0_CLP_1PH_12KV_1 Length=0.061859 units=km
New Line.95108841$P5575354-2 phases=1 Bus1=95108844.3 Bus2=95108383.3 LineCode=2_CLP_1PH_12KV_1 Length=0.004115 units=km
New Line.P5016710-1$P5016711-2 phases=3 Bus1=37696934.1.2.3 Bus2=37696871.1.2.3 LineCode=2_AL_3PH_12KV_3 Length=0.10862 units=km
New Line.BS1170-1$B5341178-1 phases=1 Bus1=43038154.3 Bus2=43038475.3 LineCode=1/0_CLP_1PH_12KV_1 Length=0.434996 units=km
New Line.B5158190-2$BS8189-1 phases=2 Bus1=43051990.1.2 Bus2=43052048.1.2 LineCode=1/0_CLP_2PH_12KV_2 Length=0.142783 units=km
New Line.B5329937-1$ND43105335 phases=1 Bus1=43037390.2 Bus2=43105335.2 LineCode=350_CLP_1PH_12KV_1 Length=0.212101 units=km
New Line.95109118$P5575360-2 phases=1 Bus1=95109121.3 Bus2=95108921.3 LineCode=2_CLP_1PH_12KV_1 Length=0.002054 units=km
New Line.95109143$P5575361-1 phases=1 Bus1=95109146.3 Bus2=95109004.3 LineCode=2_CLP_1PH_12KV_1 Length=0.003387 units=km
New Line.B5327279-2$ND43105335 phases=1 Bus1=43105335.2 Bus2=43037471.2 LineCode=350_CLP_1PH_12KV_1 Length=0.08065 units=km
New Line.B5327278-1$ND43105335 phases=1 Bus1=43105335.2 Bus2=43037612.2 LineCode=350_CLP_1PH_12KV_1 Length=0.096392 units=km
New Line.BS1169-1$B5341175-2 phases=1 Bus1=43038204.1 Bus2=43038634.1 LineCode=1/0_CLP_1PH_12KV_1 Length=0.282716 units=km
New Line.BS1168-1$B5341171-2 phases=1 Bus1=43051652.2 Bus2=43051710.2 LineCode=1/0_CLP_1PH_12KV_1 Length=0.057211 units=km
New Line.P5571366-1$107758504 phases=1 Bus1=107757981.1 Bus2=107758507.1 LineCode=2_CLP_1PH_12KV_1 Length=0.002378 units=km
New Line.P5575354-1$95108816 phases=1 Bus1=95108374.3 Bus2=95108819.3 LineCode=2_CLP_1PH_12KV_1 Length=0.001818 units=km
New Line.B5341178-2$B5341179-2 phases=1 Bus1=43038484.3 Bus2=43038412.3 LineCode=1/0_CLP_1PH_12KV_1 Length=0.023149 units=km
New Line.B5158191-1$B5158190-1 phases=2 Bus1=43052039.1.2 Bus2=43052114.1.2 LineCode=1/0_CLP_2PH_12KV_2 Length=0.113543 units=km
New Line.4528489E$87112718 phases=3 Bus1=71671704.1.2.3 Bus2=87112720.1.2.3 LineCode=2_CLP_3PH_12KV_3 Length=0.064956 units=km
New Line.107758504$107758529 phases=1 Bus1=107758506.1 Bus2=107758531.1 LineCode=2_CLP_1PH_12KV_1 Length=0.182311 units=km
New Line.B5327280-2$B5327279-1 phases=1 Bus1=43037462.2 Bus2=43037543.2 LineCode=350_CLP_1PH_12KV_1 Length=0.073634 units=km
New Line.B5327278-2$B5329935-2 phases=1 Bus1=43037621.2 Bus2=43037693.2 LineCode=350_CLP_1PH_12KV_1 Length=0.076624 units=km
New Line.B5341176-1$B5341175-1 phases=1 Bus1=43038625.1 Bus2=43038697.1 LineCode=1/0_CLP_1PH_12KV_1 Length=0.2773 units=km
New Line.B5341172-2$B5341171-1 phases=1 Bus1=43051701.2 Bus2=43051782.2 LineCode=1/0_CLP_1PH_12KV_1 Length=0.065597 units=km
New Line.95108816$95108791 phases=1 Bus1=95108818.3 Bus2=95108793.3 LineCode=2_CLP_1PH_12KV_1 Length=0.103684 units=km
New Line.B5156760-2$FD36357 phases=3 Bus1=37695690.1.2.3 Bus2=37695818.1.2.3 LineCode=2_AL_3PH_12KV_3 Length=0.075551 units=km
New Line.87112718$ND87112475 phases=3 Bus1=87112721.1.2.3 Bus2=87112475.1.2.3 LineCode=2_CLP_3PH_12KV_3 Length=0.008117 units=km
New Line.107758529$P5571368-1 phases=1 Bus1=107758532.1 Bus2=107758117.1 LineCode=2_CLP_1PH_12KV_1 Length=0.00329 units=km
New Line.B5341179-1$B5341180-1 phases=1 Bus1=43038403.3 Bus2=43038328.3 LineCode=1/0_CLP_1PH_12KV_1 Length=0.055715 units=km
New Line.B5158191-2$B5158192-1 phases=2 Bus1=43052123.1.2 Bus2=43052189.1.2 LineCode=1/0_CLP_2PH_12KV_2 Length=0.148356 units=km
New Line.ND87112475$84119803 phases=3 Bus1=87112475.1.2.3 Bus2=84119806.1.2.3 LineCode=2_CLP_3PH_12KV_3 Length=0.011495 units=km
New Line.ND87112475$87112668 phases=3 Bus1=87112475.1.2.3 Bus2=87112671.1.2.3 LineCode=2_CLP_3PH_12KV_3 Length=0.005144 units=km
New Line.ND87112475$87112693 phases=3 Bus1=87112475.1.2.3 Bus2=87112696.1.2.3 LineCode=2_CLP_3PH_12KV_3 Length=0.008931 units=km
New Line.95108791$P5575356-1 phases=1 Bus1=95108794.3 Bus2=95108452.3 LineCode=2_CLP_1PH_12KV_1 Length=0.001346 units=km
New Line.B5341176-2$B5341177-1 phases=1 Bus1=43038706.1 Bus2=43038547.1 LineCode=1/0_CLP_1PH_12KV_1 Length=0.102223 units=km
New Line.B5341174-1$B5341172-1 phases=1 Bus1=43051773.2 Bus2=43051845.2 LineCode=1/0_CLP_1PH_12KV_1 Length=0.060476 units=km
New Line.B5156761-2$B5156760-1 phases=3 Bus1=37695809.1.2.3 Bus2=37697015.1.2.3 LineCode=2_AL_3PH_12KV_3 Length=0.21406 units=km
New Line.FD36096$P5327258-2 phases=1 Bus1=43053782.1 Bus2=235947067.1 LineCode=350_AL_1PH_12KV_1 Length=0.110089 units=km
New Line.P5327258-1$P5327259-2 phases=1 Bus1=235947058.1 Bus2=235947145.1 LineCode=350_AL_1PH_12KV_1 Length=0.160122 units=km
New Line.PH458$P5059291-1 phases=3 Bus1=43054208.1.2.3 Bus2=43036502.1.2.3 LineCode=2_AL_3PH_12KV_3 Length=0.044119 units=km
New Line.84119803$84119830 phases=3 Bus1=84119805.1.2.3 Bus2=84119832.1.2.3 LineCode=2_CLP_3PH_12KV_3 Length=0.058431 units=km
New Line.87112618$87112693 phases=3 Bus1=87112695.1.2.3 Bus2=87112620.1.2.3 LineCode=2_CLP_3PH_12KV_3 Length=0.086685 units=km
New Line.87112668$87112643 phases=3 Bus1=87112670.1.2.3 Bus2=87112645.1.2.3 LineCode=2_CLP_3PH_12KV_3 Length=0.333289 units=km
New Line.P5571368-2$107758554 phases=1 Bus1=107758126.1 Bus2=107758557.1 LineCode=2_CLP_1PH_12KV_1 Length=0.008767 units=km
New Line.B5341180-2$B5341181-1 phases=1 Bus1=43038337.3 Bus2=43038253.3 LineCode=1/0_CLP_1PH_12KV_1 Length=0.062172 units=km
New Line.B5158193-2$B5158192-2 phases=2 Bus1=43052198.1.2 Bus2=43052270.1.2 LineCode=1/0_CLP_2PH_12KV_2 Length=0.170485 units=km
New Line.FD36097$BS1862-1 phases=2 Bus1=43053798.1.2 Bus2=43036859.1.2 LineCode=350_AL_2PH_12KV_2 Length=0.003502 units=km
New Line.4381722E$83359549 phases=3 Bus1=83359474.1.2.3 Bus2=83359551.1.2.3 LineCode=2_CLP_3PH_12KV_3 Length=0.034107 units=km
New Line.P5575356-2$95108766 phases=1 Bus1=95108461.3 Bus2=95108769.3 LineCode=2_CLP_1PH_12KV_1 Length=0.001832 units=km
New Line.B5341173-1$B5341174-2 phases=1 Bus1=43051854.2 Bus2=43051917.2 LineCode=1/0_CLP_1PH_12KV_1 Length=0.01466 units=km
New Line.87112643$P5498612-1 phases=3 Bus1=87112646.1.2.3 Bus2=71671763.1.2.3 LineCode=2_CLP_3PH_12KV_3 Length=0.002946 units=km
New Line.1769463E$P5575108-1 phases=2 Bus1=107914390.2.3 Bus2=107914427.2.3 LineCode=2_CLP_2PH_12KV_2 Length=0.130425 units=km
New Line.B5131337-1$BS1862-1 phases=2 Bus1=43036860.1.2 Bus2=43036912.1.2 LineCode=350_AL_2PH_12KV_2 Length=0.060815 units=km
New Line.P5302925-1$4776162E phases=3 Bus1=43054306.1.2.3 Bus2=43037157.1.2.3 LineCode=350_AL_3PH_12KV_3 Length=0.076386 units=km
New Line.83359549$P5519596-1 phases=3 Bus1=83359552.1.2.3 Bus2=83359497.1.2.3 LineCode=2_CLP_3PH_12KV_3 Length=0.005039 units=km
New Line.ND105266108$4654097E phases=3 Bus1=105265973.1.2.3 Bus2=105266108.1.2.3 LineCode=350_CLP_3PH_12KV_3 Length=0.016641 units=km
New Line.84119830$P5558105-1 phases=3 Bus1=84119833.1.2.3 Bus2=84119754.1.2.3 LineCode=2_CLP_3PH_12KV_3 Length=0.004934 units=km
New Line.87112618$ND87112511 phases=3 Bus1=87112621.1.2.3 Bus2=87112511.1.2.3 LineCode=2_CLP_3PH_12KV_3 Length=0.001031 units=km
New Line.107758554$107758579 phases=1 Bus1=107758556.1 Bus2=107758581.1 LineCode=2_CLP_1PH_12KV_1 Length=0.147282 units=km
New Line.ND87112511$P5517034-1 phases=3 Bus1=87112511.1.2.3 Bus2=87112427.1.2.3 LineCode=2_CLP_3PH_12KV_3 Length=0.084491 units=km
New Line.ND87112511$87112593 phases=3 Bus1=87112511.1.2.3 Bus2=87112596.1.2.3 LineCode=2_CLP_3PH_12KV_3 Length=0.003563 units=km
New Line.95108766$ND95108694 phases=1 Bus1=95108768.3 Bus2=95108694.3 LineCode=2_CLP_1PH_12KV_1 Length=0.110827 units=km
New Line.B5157382-2$PH501 phases=1 Bus1=43089344.2 Bus2=43036767.2 LineCode=1/0_AL_1PH_12KV_1 Length=0.101477 units=km
New Line.ND105266108$P5582992-1 phases=1 Bus1=105266108.3 Bus2=222485690.3 LineCode=2_CLP_1PH_12KV_1 Length=0.007864 units=km
New Line.1433940E$232790815 phases=3 Bus1=43054319.1.2.3 Bus2=232790817.1.2.3 LineCode=350_AL_3PH_12KV_3 Length=0.020264 units=km
New Line.B5158194-2$B5158193-1 phases=2 Bus1=43052261.1.2 Bus2=43052342.1.2 LineCode=1/0_CLP_2PH_12KV_2 Length=0.125104 units=km
New Line.PH145$P5021244-1 phases=3 Bus1=43054332.1.2.3 Bus2=43089811.1.2.3 LineCode=350_AL_3PH_12KV_3 Length=0.109447 units=km
New Line.PH867E$ND43105117 phases=4 Bus1=43054060.0.1.2.3 Bus2=43105117.0.1.2.3 LineCode=336_ACSR_3PH_336_ACSR_N_12KV_4 Length=0.053601 units=km
New Line.ND43105117$2115865E phases=3 Bus1=43105117.1.2.3 Bus2=43054022.1.2.3 LineCode=336_ACSR_3PH_12KV_3 Length=0.002902 units=km
New Line.ND43105117$PS1617 phases=4 Bus1=43105117.0.1.2.3 Bus2=43089935.0.1.2.3 LineCode=336_ACSR_3PH_336_ACSR_N_12KV_4 Length=0.037852 units=km
New Line.PS1617$ND43105309 phases=4 Bus1=43089936.0.1.2.3 Bus2=43105309.0.1.2.3 LineCode=336_ACSR_3PH_336_ACSR_N_12KV_4 Length=0.088292 units=km
New Line.ND43105309$PS0546 phases=3 Bus1=43105309.1.2.3 Bus2=37768764.1.2.3 LineCode=336_ACSR_3PH_12KV_3 Length=0.034961 units=km
New Line.PS0372$ND43105309 phases=4 Bus1=43105309.0.1.2.3 Bus2=43089995.0.1.2.3 LineCode=336_ACSR_3PH_336_ACSR_N_12KV_4 Length=0.110613 units=km
New Line.800091E$PS0546 phases=3 Bus1=37768763.1.2.3 Bus2=37693834.1.2.3 LineCode=336_ACSR_3PH_12KV_3 Length=0.034981 units=km
New Line.PS0372$4312989E phases=4 Bus1=43089994.0.1.2.3 Bus2=43089447.0.1.2.3 LineCode=336_ACSR_3PH_336_ACSR_N_12KV_4 Length=0.057557 units=km
New Line.767014E$ND236704349 phases=4 Bus1=236704349.0.1.2.3 Bus2=216246691.0.1.2.3 LineCode=336_ACSR_3PH_336_ACSR_N_12KV_4 Length=0.058837 units=km
New Line.800092E$800091E phases=3 Bus1=37693834.1.2.3 Bus2=37693892.1.2.3 LineCode=336_ACSR_3PH_12KV_3 Length=0.035399 units=km
New Line.4312989E$1355205E phases=4 Bus1=43089447.0.1.2.3 Bus2=43035602.0.1.2.3 LineCode=336_ACSR_3PH_336_ACSR_N_12KV_4 Length=0.045033 units=km
New Line.ND218702137$767017E phases=3 Bus1=46778340.1.2.3 Bus2=218702137.1.2.3 LineCode=336_ACSR_3PH_12KV_3 Length=0.029108 units=km
New Line.ND37813885$800092E phases=3 Bus1=37693892.1.2.3 Bus2=37813885.1.2.3 LineCode=336_ACSR_3PH_12KV_3 Length=0.034672 units=km
New Line.1355205E$2059449E phases=4 Bus1=43035602.0.1.2.3 Bus2=43035573.0.1.2.3 LineCode=336_ACSR_3PH_336_ACSR_N_12KV_4 Length=0.032844 units=km
New Line.767014E$767015E phases=4 Bus1=216246691.0.1.2.3 Bus2=46796502.0.1.2.3 LineCode=336_ACSR_3PH_336_ACSR_N_12KV_4 Length=0.143562 units=km
New Line.778325E$ND218702137 phases=3 Bus1=218702137.1.2.3 Bus2=214303430.1.2.3 LineCode=336_ACSR_3PH_12KV_3 Length=0.047976 units=km
New Line.767015E$767016E phases=4 Bus1=46796502.0.1.2.3 Bus2=216246754.0.1.2.3 LineCode=336_ACSR_3PH_336_ACSR_N_12KV_4 Length=0.041973 units=km
New Line.1021316E$1021315E phases=2 Bus1=37694815.1.2 Bus2=37694840.1.2 LineCode=4_ACSR_2PH_12KV_2 Length=0.05488 units=km
New Line.1014696E$4694512E phases=2 Bus1=37694890.1.3 Bus2=37694915.1.3 LineCode=4_ACSR_2PH_12KV_2 Length=0.129176 units=km
New Line.ND37814521$1048453E phases=2 Bus1=37814521.1.3 Bus2=37695040.1.3 LineCode=4_ACSR_2PH_12KV_2 Length=0.019429 units=km
New Line.1002014E$1002015E phases=2 Bus1=37695281.1.2 Bus2=37695306.1.2 LineCode=6_CU_2PH_12KV_2 Length=0.056757 units=km
New Line.1021318E$1021319E phases=2 Bus1=37695381.1.2 Bus2=37695431.1.2 LineCode=4_ACSR_2PH_12KV_2 Length=0.05485 units=km
New Line.ND37814521$1048131E phases=2 Bus1=37814521.1.3 Bus2=37695481.1.3 LineCode=4_ACSR_2PH_12KV_2 Length=0.077834 units=km
New Line.1070150E$1070551E phases=3 Bus1=37695606.1.2.3 Bus2=37695631.1.2.3 LineCode=4_ACSR_3PH_12KV_3 Length=0.054851 units=km
New Line.ND37794082$BF90136 phases=3 Bus1=37794082.1.2.3 Bus2=37769130.1.2.3 LineCode=4_ACSR_3PH_12KV_3 Length=0.020326 units=km
New Line.ND37794082$ND37793013 phases=3 Bus1=37794082.1.2.3 Bus2=37793013.1.2.3 LineCode=4_ACSR_3PH_12KV_3 Length=0.095836 units=km
New Line.ND218702137$BF91544 phases=3 Bus1=218702137.1.2.3 Bus2=218702153.1.2.3 LineCode=1/0_ACSR_3PH_12KV_3 Length=0.003188 units=km
New Line.BF91543$1421934E phases=2 Bus1=236704314.1.2 Bus2=236704380.1.2 LineCode=1/0_ACSR_2PH_12KV_2 Length=0.016024 units=km
New Line.4782994E$ND37813885 phases=3 Bus1=37813885.1.2.3 Bus2=37693863.1.2.3 LineCode=336_ACSR_3PH_12KV_3 Length=0.0379 units=km
New Line.ND37813885$800093E phases=3 Bus1=37813885.1.2.3 Bus2=37749359.1.2.3 LineCode=336_ACSR_3PH_12KV_3 Length=0.000465 units=km
New Line.2059449E$ND43054109 phases=4 Bus1=43035573.0.1.2.3 Bus2=43054109.0.1.2.3 LineCode=336_ACSR_3PH_336_ACSR_N_12KV_4 Length=0.009312 units=km
New Line.4778833E$4782994E phases=3 Bus1=37693863.1.2.3 Bus2=37693805.1.2.3 LineCode=336_ACSR_3PH_12KV_3 Length=0.016906 units=km
New Line.ND43054109$1295312E phases=4 Bus1=43054109.0.1.2.3 Bus2=43035631.0.1.2.3 LineCode=336_ACSR_3PH_336_ACSR_N_12KV_4 Length=0.085732 units=km
New Line.767016E$877907E phases=4 Bus1=216246754.0.1.2.3 Bus2=46796477.0.1.2.3 LineCode=336_ACSR_3PH_336_ACSR_N_12KV_4 Length=0.044525 units=km
New Line.ND46796937$778325E phases=3 Bus1=214303430.1.2.3 Bus2=46796937.1.2.3 LineCode=336_ACSR_3PH_12KV_3 Length=0.074544 units=km
New Line.ND46796937$BF91548 phases=2 Bus1=46796937.1.3 Bus2=214303481.1.3 LineCode=1/0_ACSR_2PH_12KV_2 Length=0.064657 units=km
New Line.864641E$4778833E phases=3 Bus1=37693805.1.2.3 Bus2=37693776.1.2.3 LineCode=336_ACSR_3PH_12KV_3 Length=0.039773 units=km
New Line.1295312E$4592797E phases=4 Bus1=43035631.0.1.2.3 Bus2=43035660.0.1.2.3 LineCode=336_ACSR_3PH_336_ACSR_N_12KV_4 Length=0.045793 units=km
New Line.ND46796937$778790E phases=3 Bus1=46796937.1.2.3 Bus2=46778767.1.2.3 LineCode=336_ACSR_3PH_12KV_3 Length=0.037359 units=km
New Line.877907E$865048E phases=4 Bus1=46796477.0.1.2.3 Bus2=46796452.0.1.2.3 LineCode=336_ACSR_3PH_336_ACSR_N_12KV_4 Length=0.080326 units=km
New Line.BF91544$865103E phases=3 Bus1=218702154.1.2.3 Bus2=46796579.1.2.3 LineCode=1/0_ACSR_3PH_12KV_3 Length=0.097028 units=km
New Line.1014547E$ND43105150 phases=3 Bus1=43052420.1.2.3 Bus2=43105150.1.2.3 LineCode=4_ACSR_3PH_12KV_3 Length=0.037316 units=km
New Line.ND37793013$4739006E phases=3 Bus1=37793013.1.2.3 Bus2=136137241.1.2.3 LineCode=4_ACSR_3PH_12KV_3 Length=0.104432 units=km
New Line.ND43105150$4729220E phases=3 Bus1=43105150.1.2.3 Bus2=196477535.1.2.3 LineCode=4_ACSR_3PH_12KV_3 Length=0.069923 units=km
New Line.1048630E$1048631E phases=2 Bus1=37694415.2.3 Bus2=37694440.2.3 LineCode=4_ACSR_2PH_12KV_2 Length=0.037443 units=km
New Line.4778841E$4630839E phases=2 Bus1=37694490.2.3 Bus2=37694515.2.3 LineCode=4_ACSR_2PH_12KV_2 Length=0.078445 units=km
New Line.1559368E$4601264E phases=2 Bus1=37694615.2.3 Bus2=37694640.2.3 LineCode=4_ACSR_2PH_12KV_2 Length=0.043257 units=km
New Line.4592797E$4487582E phases=4 Bus1=43035660.0.1.2.3 Bus2=100647285.0.1.2.3 LineCode=336_ACSR_3PH_336_ACSR_N_12KV_4 Length=0.033115 units=km
New Line.865048E$PS0368 phases=4 Bus1=46796452.0.1.2.3 Bus2=216246511.0.1.2.3 LineCode=336_ACSR_3PH_336_ACSR_N_12KV_4 Length=0.095663 units=km
New Line.PS0373$778790E phases=3 Bus1=46778767.1.2.3 Bus2=216972888.1.2.3 LineCode=336_ACSR_3PH_12KV_3 Length=0.020735 units=km
New Line.ND37795437$864641E phases=3 Bus1=37693776.1.2.3 Bus2=37795437.1.2.3 LineCode=336_ACSR_3PH_12KV_3 Length=0.040957 units=km
New Line.865103E$865104E phases=3 Bus1=46796579.1.2.3 Bus2=46796608.1.2.3 LineCode=1/0_ACSR_3PH_12KV_3 Length=0.03988 units=km
New Line.4487582E$4187161E phases=4 Bus1=100647285.0.1.2.3 Bus2=207941708.0.1.2.3 LineCode=336_ACSR_3PH_336_ACSR_N_12KV_4 Length=0.033325 units=km
New Line.1048453E$1048452E phases=2 Bus1=37695040.1.3 Bus2=37694940.1.3 LineCode=4_ACSR_2PH_12KV_2 Length=0.038471 units=km
New Line.1021315E$1021314E phases=2 Bus1=37694840.1.2 Bus2=37695015.1.2 LineCode=4_ACSR_2PH_12KV_2 Length=0.054821 units=km
New Line.1002015E$1002016E phases=2 Bus1=37695306.1.2 Bus2=37695331.1.2 LineCode=6_CU_2PH_12KV_2 Length=0.057902 units=km
New Line.1021319E$1021320E phases=2 Bus1=37695431.1.2 Bus2=37695406.1.2 LineCode=4_ACSR_2PH_12KV_2 Length=0.054855 units=km
New Line.1048131E$4782991E phases=2 Bus1=37695481.1.3 Bus2=37695506.1.3 LineCode=4_ACSR_2PH_12KV_2 Length=0.054854 units=km
New Line.1070551E$1070552E phases=3 Bus1=37695631.1.2.3 Bus2=37695656.1.2.3 LineCode=4_ACSR_3PH_12KV_3 Length=0.046244 units=km
New Line.ND37793013$4651092E phases=3 Bus1=37793013.1.2.3 Bus2=37695772.1.2.3 LineCode=4_ACSR_3PH_12KV_3 Length=0.0192 units=km
New Line.BF90128$ND37792479 phases=3 Bus1=37769109.1.2.3 Bus2=37792479.1.2.3 LineCode=4_ACSR_3PH_12KV_3 Length=0.015853 units=km
New Line.1342078E$ND43105150 phases=2 Bus1=43105150.1.3 Bus2=43103295.1.3 LineCode=6_CU_2PH_12KV_2 Length=0.086089 units=km
New Line.1048631E$4727212E phases=2 Bus1=37694440.2.3 Bus2=37694465.2.3 LineCode=4_ACSR_2PH_12KV_2 Length=0.149246 units=km
New Line.865104E$878501E phases=3 Bus1=46796608.1.2.3 Bus2=218702212.1.2.3 LineCode=1/0_ACSR_3PH_12KV_3 Length=0.034663 units=km
New Line.ND37795437$1897754E phases=4 Bus1=37795437.0.1.2.3 Bus2=37693969.0.1.2.3 LineCode=336_ACSR_3PH_336_ACSR_N_12KV_4 Length=0.036364 units=km
New Line.PS1618$ND37795437 phases=4 Bus1=37795437.0.1.2.3 Bus2=37768705.0.1.2.3 LineCode=336_ACSR_3PH_336_ACSR_N_12KV_4 Length=0.027668 units=km
New Line.878507E$BF91548 phases=2 Bus1=214303482.1.3 Bus2=46796527.1.3 LineCode=1/0_ACSR_2PH_12KV_2 Length=0.023308 units=km
New Line.ND214303444$PS0373 phases=3 Bus1=216972887.1.2.3 Bus2=214303444.1.2.3 LineCode=336_ACSR_3PH_12KV_3 Length=0.053183 units=km
New Line.1897754E$ND37792198 phases=4 Bus1=37693969.0.1.2.3 Bus2=37792198.0.1.2.3 LineCode=336_ACSR_3PH_336_ACSR_N_12KV_4 Length=0.044554 units=km
New Line.4630839E$1048638E phases=2 Bus1=37694515.2.3 Bus2=37694540.2.3 LineCode=4_ACSR_2PH_12KV_2 Length=0.077701 units=km
New Line.4601264E$1559370E phases=2 Bus1=37694640.2.3 Bus2=37694665.2.3 LineCode=4_ACSR_2PH_12KV_2 Length=0.037773 units=km
New Line.1021314E$1586754E phases=2 Bus1=37695015.1.2 Bus2=37694740.1.2 LineCode=4_ACSR_2PH_12KV_2 Length=0.05796 units=km
New Line.1048452E$4493469E phases=2 Bus1=37694940.1.3 Bus2=37694965.1.3 LineCode=4_ACSR_2PH_12KV_2 Length=0.054854 units=km
New Line.ND37792479$1183926E phases=2 Bus1=37792479.1.3 Bus2=37695165.1.3 LineCode=4_ACSR_2PH_12KV_2 Length=0.024199 units=km
New Line.1070552E$FD36358 phases=3 Bus1=37695656.1.2.3 Bus2=37695223.1.2.3 LineCode=4_ACSR_3PH_12KV_3 Length=0.039862 units=km
New Line.1002016E$1002017E phases=2 Bus1=37695331.1.2 Bus2=37695356.1.2 LineCode=6_CU_2PH_12KV_2 Length=0.054874 units=km
New Line.1021320E$1021322E phases=2 Bus1=37695406.1.2 Bus2=37695456.1.2 LineCode=4_ACSR_2PH_12KV_2 Length=0.126083 units=km
New Line.4782991E$1048134E phases=2 Bus1=37695506.1.3 Bus2=37695531.1.3 LineCode=4_ACSR_2PH_12KV_2 Length=0.10971 units=km
New Line.4187161E$ND43106336 phases=4 Bus1=207941708.0.1.2.3 Bus2=43106336.0.1.2.3 LineCode=336_ACSR_3PH_336_ACSR_N_12KV_4 Length=0.030906 units=km
New Line.878507E$878509E phases=2 Bus1=46796527.1.3 Bus2=46778742.1.3 LineCode=1/0_ACSR_2PH_12KV_2 Length=0.074527 units=km
New Line.878501E$878503E phases=3 Bus1=218702212.1.2.3 Bus2=46796635.1.2.3 LineCode=1/0_ACSR_3PH_12KV_3 Length=0.088118 units=km
New Line.ND214303444$4778816E phases=4 Bus1=214303444.0.1.2.3 Bus2=140573214.0.1.2.3 LineCode=336_ACSR_3PH_336_ACSR_N_12KV_4 Length=0.032177 units=km
...

! Switches
New Line.MEDALLION$KINGTREE_GS0255-1$GS0255-1 phases=3 Bus1=245277785.1.2.3 Bus2=-777777245277785.1.2.3 switch=y r1=0.001 x1=0.001 r0=0.001 x0=0.001 Length=0.001 units=km
New Line.MEDALLION$KINGTREE_PS1618$PS1618 phases=3 Bus1=37768704.1.2.3 Bus2=-77777737768704.1.2.3 switch=y r1=0.001 x1=0.001 r0=0.001 x0=0.001 Length=0.001 units=km
New Line.MEDALLION$TROPICO_PS0183$PS0183 phases=3 Bus1=37768880.1.2.3 Bus2=-77777737768880.1.2.3 switch=y r1=0.001 x1=0.001 r0=0.001 x0=0.001 Length=0.001 units=km
New Line.MEDALLION$TARGET_PS0399$PS0399 phases=3 Bus1=43090067.1.2.3 Bus2=-77777743090067.1.2.3 switch=y r1=0.001 x1=0.001 r0=0.001 x0=0.001 Length=0.001 units=km
New Line.MEDALLION$TROPICO_PS1172$PS1172 phases=3 Bus1=37768931.1.2.3 Bus2=-77777737768931.1.2.3 switch=y r1=0.001 x1=0.001 r0=0.001 x0=0.001 Length=0.001 units=km
New Line.MEDALLION$JEDI_RCS0807$RCS0807 phases=3 Bus1=43103197.1.2.3 Bus2=-77777743103197.1.2.3 switch=y r1=0.001 x1=0.001 r0=0.001 x0=0.001 Length=0.001 units=km
New Line.5575353:FC5353-1 phases=1 Bus1=95108302.3 Bus2=95108303.3 switch=y r1=0.001 x1=0.001 r0=0.001 x0=0.001 Length=0.001 units=km
New Line.2838479E:PS1618 phases=3 Bus1=37768705.1.2.3 Bus2=37768704.1.2.3 switch=y r1=0.001 x1=0.001 r0=0.001 x0=0.001 Length=0.001 units=km enabled=false
New Line.5341170:BS1170-1 phases=1 Bus1=43038153.3 Bus2=43038154.3 switch=y r1=0.001 x1=0.001 r0=0.001 x0=0.001 Length=0.001 units=km
New Line.5158189:BS8189-1 phases=3 Bus1=43051989.1.2.3 Bus2=43051990.1.2.3 switch=y r1=0.001 x1=0.001 r0=0.001 x0=0.001 Length=0.001 units=km
New Line.5341169:BS1169-1 phases=1 Bus1=43038203.1 Bus2=43038204.1 switch=y r1=0.001 x1=0.001 r0=0.001 x0=0.001 Length=0.001 units=km
New Line.5341168:BS1168-1 phases=1 Bus1=43051651.2 Bus2=43051652.2 switch=y r1=0.001 x1=0.001 r0=0.001 x0=0.001 Length=0.001 units=km
New Line.5329940:BS9940-1 phases=1 Bus1=43053818.2 Bus2=43053817.2 switch=y r1=0.001 x1=0.001 r0=0.001 x0=0.001 Length=0.001 units=km
New Line.5571364:FC1364-1 phases=1 Bus1=107757936.1 Bus2=107757937.1 switch=y r1=0.001 x1=0.001 r0=0.001 x0=0.001 Length=0.001 units=km
New Line.5750664:GS0255-1 phases=3 Bus1=245277764.1.2.3 Bus2=245277785.1.2.3 switch=y r1=0.001 x1=0.001 r0=0.001 x0=0.001 Length=0.001 units=km enabled=false
New Line.5750664:GS0255-3 phases=3 Bus1=245277771.1.2.3 Bus2=245277803.1.2.3 switch=y r1=0.001 x1=0.001 r0=0.001 x0=0.001 Length=0.001 units=km enabled=false
New Line.5349328:GS9328-3 phases=3 Bus1=239770238.1.2.3 Bus2=239770276.1.2.3 switch=y r1=0.001 x1=0.001 r0=0.001 x0=0.001 Length=0.001 units=km enabled=false
New Line.5349328:GS9328-5 phases=3 Bus1=239770250.1.2.3 Bus2=239770294.1.2.3 switch=y r1=0.001 x1=0.001 r0=0.001 x0=0.001 Length=0.001 units=km enabled=false
New Line.245277782$245277791 phases=3 Bus1=245277765.1.2.3 Bus2=245277764.1.2.3 switch=y r1=0.001 x1=0.001 r0=0.001 x0=0.001 Length=0.001 units=km
New Line.245277791$GS0255-3 phases=3 Bus1=245277765.1.2.3 Bus2=245277771.1.2.3 switch=y r1=0.001 x1=0.001 r0=0.001 x0=0.001 Length=0.001 units=km
New Line.GS0255-3$245277809 phases=3 Bus1=245277771.1.2.3 Bus2=245277777.1.2.3 switch=y r1=0.001 x1=0.001 r0=0.001 x0=0.001 Length=0.001 units=km
New Line.5750664:GS0255-2 phases=3 Bus1=245277794.1.2.3 Bus2=245277765.1.2.3 switch=y r1=0.001 x1=0.001 r0=0.001 x0=0.001 Length=0.001 units=km
New Line.5750664:GS0255-4 phases=3 Bus1=245277777.1.2.3 Bus2=245277812.1.2.3 switch=y r1=0.001 x1=0.001 r0=0.001 x0=0.001 Length=0.001 units=km
New Line.574694E:PS1617 phases=3 Bus1=43089935.1.2.3 Bus2=43089936.1.2.3 switch=y r1=0.001 x1=0.001 r0=0.001 x0=0.001 Length=0.001 units=km
New Line.767012E:PS0364 phases=3 Bus1=214958825.1.2.3 Bus2=214958826.1.2.3 switch=y r1=0.001 x1=0.001 r0=0.001 x0=0.001 Length=0.001 units=km
New Line.766950E:PS0546 phases=3 Bus1=37768764.1.2.3 Bus2=37768763.1.2.3 switch=y r1=0.001 x1=0.001 r0=0.001 x0=0.001 Length=0.001 units=km
New Line.1295314E:PS0372 phases=3 Bus1=43089995.1.2.3 Bus2=43089994.1.2.3 switch=y r1=0.001 x1=0.001 r0=0.001 x0=0.001 Length=0.001 units=km
New Line.5625002:P5625002-1 phases=3 Bus1=144731019.1.2.3 Bus2=144731020.1.2.3 switch=y r1=0.001 x1=0.001 r0=0.001 x0=0.001 Length=0.001 units=km
New Line.5321675:P5321675-1 phases=3 Bus1=37693906.1.2.3 Bus2=37693907.1.2.3 switch=y r1=0.001 x1=0.001 r0=0.001 x0=0.001 Length=0.001 units=km
New Line.865050E:PS0368 phases=3 Bus1=216246511.1.2.3 Bus2=216246512.1.2.3 switch=y r1=0.001 x1=0.001 r0=0.001 x0=0.001 Length=0.001 units=km enabled=false
New Line.5349328:GS9328-1 phases=3 Bus1=239770231.1.2.3 Bus2=239770258.1.2.3 switch=y r1=0.001 x1=0.001 r0=0.001 x0=0.001 Length=0.001 units=km
New Line.778791E:PS0373 phases=3 Bus1=216972888.1.2.3 Bus2=216972887.1.2.3 switch=y r1=0.001 x1=0.001 r0=0.001 x0=0.001 Length=0.001 units=km enabled=false
New Line.5349328:GS9328-4 phases=3 Bus1=239770244.1.2.3 Bus2=239770285.1.2.3 switch=y r1=0.001 x1=0.001 r0=0.001 x0=0.001 Length=0.001 units=km
New Line.144730982 phases=3 Bus1=144730985.1.2.3 Bus2=144730984.1.2.3 switch=y r1=0.001 x1=0.001 r0=0.001 x0=0.001 Length=0.001 units=km
New Line.144731001 phases=3 Bus1=144731003.1.2.3 Bus2=144731004.1.2.3 switch=y r1=0.001 x1=0.001 r0=0.001 x0=0.001 Length=0.001 units=km
New Line.GS9328-1$239770265 phases=3 Bus1=239770232.1.2.3 Bus2=239770231.1.2.3 switch=y r1=0.001 x1=0.001 r0=0.001 x0=0.001 Length=0.001 units=km
New Line.239770265$GS9328-3 phases=3 Bus1=239770232.1.2.3 Bus2=239770238.1.2.3 switch=y r1=0.001 x1=0.001 r0=0.001 x0=0.001 Length=0.001 units=km
New Line.107758454 phases=1 Bus1=107758457.1 Bus2=107758456.1 switch=y r1=0.001 x1=0.001 r0=0.001 x0=0.001 Length=0.001 units=km
New Line.GS9328-3$239770283 phases=3 Bus1=239770238.1.2.3 Bus2=239770244.1.2.3 switch=y r1=0.001 x1=0.001 r0=0.001 x0=0.001 Length=0.001 units=km
New Line.239770283$GS9328-5 phases=3 Bus1=239770244.1.2.3 Bus2=239770250.1.2.3 switch=y r1=0.001 x1=0.001 r0=0.001 x0=0.001 Length=0.001 units=km
New Line.95108876 phases=1 Bus1=95108879.3 Bus2=95108878.3 switch=y r1=0.001 x1=0.001 r0=0.001 x0=0.001 Length=0.001 units=km
New Line.95109093 phases=1 Bus1=95109096.3 Bus2=95109095.3 switch=y r1=0.001 x1=0.001 r0=0.001 x0=0.001 Length=0.001 units=km
New Line.107758479 phases=1 Bus1=107758481.1 Bus2=107758482.1 switch=y r1=0.001 x1=0.001 r0=0.001 x0=0.001 Length=0.001 units=km
New Line.108290805 phases=1 Bus1=108290807.1 Bus2=108290808.1 switch=y r1=0.001 x1=0.001 r0=0.001 x0=0.001 Length=0.001 units=km
New Line.95108841 phases=1 Bus1=95108843.3 Bus2=95108844.3 switch=y r1=0.001 x1=0.001 r0=0.001 x0=0.001 Length=0.001 units=km
New Line.95109118 phases=1 Bus1=95109120.3 Bus2=95109121.3 switch=y r1=0.001 x1=0.001 r0=0.001 x0=0.001 Length=0.001 units=km
New Line.95109143 phases=1 Bus1=95109145.3 Bus2=95109146.3 switch=y r1=0.001 x1=0.001 r0=0.001 x0=0.001 Length=0.001 units=km
New Line.2199880E$2199880E-2 phases=3 Bus1=37749424.1.2.3 Bus2=37749423.1.2.3 switch=y r1=0.001 x1=0.001 r0=0.001 x0=0.001 Length=0.001 units=km
New Line.241257626$PDRSR0804-D phases=3 Bus1=241257600.1.2.3 Bus2=241257576.1.2.3 switch=y r1=0.001 x1=0.001 r0=0.001 x0=0.001 Length=0.001 units=km
New Line.241257626$PDRSR0804-C phases=3 Bus1=241257600.1.2.3 Bus2=241257601.1.2.3 switch=y r1=0.001 x1=0.001 r0=0.001 x0=0.001 Length=0.001 units=km
New Line.2199880E-1$2199880E phases=3 Bus1=37749423.1.2.3 Bus2=37749429.1.2.3 switch=y r1=0.001 x1=0.001 r0=0.001 x0=0.001 Length=0.001 units=km
New Line.RSR0804$PDRSR0804-D phases=3 Bus1=241257577.1.2.3 Bus2=241257565.1.2.3 switch=y r1=0.001 x1=0.001 r0=0.001 x0=0.001 Length=0.001 units=km
New Line.241257622$PDRSR0804-C phases=3 Bus1=241257583.1.2.3 Bus2=241257582.1.2.3 switch=y r1=0.001 x1=0.001 r0=0.001 x0=0.001 Length=0.001 units=km
New Line.241257622$PDRSR0804-B phases=3 Bus1=241257582.1.2.3 Bus2=241257570.1.2.3 switch=y r1=0.001 x1=0.001 r0=0.001 x0=0.001 Length=0.001 units=km
New Line.PDRSR0804-B$RSR0804 phases=3 Bus1=241257564.1.2.3 Bus2=241257571.1.2.3 switch=y r1=0.001 x1=0.001 r0=0.001 x0=0.001 Length=0.001 units=km
New Line.107758504 phases=1 Bus1=107758507.1 Bus2=107758506.1 switch=y r1=0.001 x1=0.001 r0=0.001 x0=0.001 Length=0.001 units=km
New Line.95108816 phases=1 Bus1=95108819.3 Bus2=95108818.3 switch=y r1=0.001 x1=0.001 r0=0.001 x0=0.001 Length=0.001 units=km
New Line.87112718 phases=3 Bus1=87112720.1.2.3 Bus2=87112721.1.2.3 switch=y r1=0.001 x1=0.001 r0=0.001 x0=0.001 Length=0.001 units=km
New Line.107758529 phases=1 Bus1=107758531.1 Bus2=107758532.1 switch=y r1=0.001 x1=0.001 r0=0.001 x0=0.001 Length=0.001 units=km
New Line.95108791 phases=1 Bus1=95108793.3 Bus2=95108794.3 switch=y r1=0.001 x1=0.001 r0=0.001 x0=0.001 Length=0.001 units=km
New Line.84119803 phases=3 Bus1=84119806.1.2.3 Bus2=84119805.1.2.3 switch=y r1=0.001 x1=0.001 r0=0.001 x0=0.001 Length=0.001 units=km
New Line.87112668 phases=3 Bus1=87112671.1.2.3 Bus2=87112670.1.2.3 switch=y r1=0.001 x1=0.001 r0=0.001 x0=0.001 Length=0.001 units=km
New Line.87112693 phases=3 Bus1=87112696.1.2.3 Bus2=87112695.1.2.3 switch=y r1=0.001 x1=0.001 r0=0.001 x0=0.001 Length=0.001 units=km
New Line.84119830 phases=3 Bus1=84119832.1.2.3 Bus2=84119833.1.2.3 switch=y r1=0.001 x1=0.001 r0=0.001 x0=0.001 Length=0.001 units=km
New Line.87112618 phases=3 Bus1=87112620.1.2.3 Bus2=87112621.1.2.3 switch=y r1=0.001 x1=0.001 r0=0.001 x0=0.001 Length=0.001 units=km
New Line.87112643 phases=3 Bus1=87112645.1.2.3 Bus2=87112646.1.2.3 switch=y r1=0.001 x1=0.001 r0=0.001 x0=0.001 Length=0.001 units=km
New Line.107758554 phases=1 Bus1=107758557.1 Bus2=107758556.1 switch=y r1=0.001 x1=0.001 r0=0.001 x0=0.001 Length=0.001 units=km
New Line.83359549 phases=3 Bus1=83359551.1.2.3 Bus2=83359552.1.2.3 switch=y r1=0.001 x1=0.001 r0=0.001 x0=0.001 Length=0.001 units=km
New Line.95108766 phases=1 Bus1=95108769.3 Bus2=95108768.3 switch=y r1=0.001 x1=0.001 r0=0.001 x0=0.001 Length=0.001 units=km
New Line.107758579 phases=1 Bus1=107758581.1 Bus2=107758582.1 switch=y r1=0.001 x1=0.001 r0=0.001 x0=0.001 Length=0.001 units=km
New Line.87112593 phases=3 Bus1=87112596.1.2.3 Bus2=87112595.1.2.3 switch=y r1=0.001 x1=0.001 r0=0.001 x0=0.001 Length=0.001 units=km
New Line.95108714 phases=1 Bus1=95108716.3 Bus2=95108717.3 switch=y r1=0.001 x1=0.001 r0=0.001 x0=0.001 Length=0.001 units=km
New Line.95108741 phases=1 Bus1=95108743.3 Bus2=95108744.3 switch=y r1=0.001 x1=0.001 r0=0.001 x0=0.001 Length=0.001 units=km
New Line.87112554 phases=3 Bus1=87112556.1.2.3 Bus2=87112557.1.2.3 switch=y r1=0.001 x1=0.001 r0=0.001 x0=0.001 Length=0.001 units=km
New Line.107758604 phases=1 Bus1=107758607.1 Bus2=107758606.1 switch=y r1=0.001 x1=0.001 r0=0.001 x0=0.001 Length=0.001 units=km
New Line.43104031 phases=3 Bus1=43104034.1.2.3 Bus2=43104033.1.2.3 switch=y r1=0.001 x1=0.001 r0=0.001 x0=0.001 Length=0.001 units=km
New Line.87112519 phases=3 Bus1=87112522.1.2.3 Bus2=87112521.1.2.3 switch=y r1=0.001 x1=0.001 r0=0.001 x0=0.001 Length=0.001 units=km
New Line.107351547 phases=1 Bus1=107351549.1 Bus2=107351550.1 switch=y r1=0.001 x1=0.001 r0=0.001 x0=0.001 Length=0.001 units=km
New Line.232790815 phases=3 Bus1=232790817.1.2.3 Bus2=232790818.1.2.3 switch=y r1=0.001 x1=0.001 r0=0.001 x0=0.001 Length=0.001 units=km
New Line.107758427 phases=1 Bus1=107758429.1 Bus2=107758430.1 switch=y r1=0.001 x1=0.001 r0=0.001 x0=0.001 Length=0.001 units=km
New Line.43104021 phases=3 Bus1=43104023.1.2.3 Bus2=43104024.1.2.3 switch=y r1=0.001 x1=0.001 r0=0.001 x0=0.001 Length=0.001 units=km
New Line.95109168 phases=1 Bus1=95109170.3 Bus2=95109171.3 switch=y r1=0.001 x1=0.001 r0=0.001 x0=0.001 Length=0.001 units=km
New Line.107351574 phases=1 Bus1=107351577.1 Bus2=107351576.1 switch=y r1=0.001 x1=0.001 r0=0.001 x0=0.001 Length=0.001 units=km
New Line.107351599 phases=1 Bus1=107351602.1 Bus2=107351601.1 switch=y r1=0.001 x1=0.001 r0=0.001 x0=0.001 Length=0.001 units=km
New Line.107758629 phases=1 Bus1=107758631.1 Bus2=107758632.1 switch=y r1=0.001 x1=0.001 r0=0.001 x0=0.001 Length=0.001 units=km
New Line.107758654 phases=1 Bus1=107758656.1 Bus2=107758657.1 switch=y r1=0.001 x1=0.001 r0=0.001 x0=0.001 Length=0.001 units=km
New Line.43103283 phases=3 Bus1=43103285.1.2.3 Bus2=43103286.1.2.3 switch=y r1=0.001 x1=0.001 r0=0.001 x0=0.001 Length=0.001 units=km
New Line.231975056 phases=3 Bus1=231975058.1.2.3 Bus2=231975059.1.2.3 switch=y r1=0.001 x1=0.001 r0=0.001 x0=0.001 Length=0.001 units=km
New Line.152425539 phases=3 Bus1=152425541.1.2.3 Bus2=152425542.1.2.3 switch=y r1=0.001 x1=0.001 r0=0.001 x0=0.001 Length=0.001 units=km
New Line.186450310 phases=2 Bus1=186450312.1.2 Bus2=186450313.1.2 switch=y r1=0.001 x1=0.001 r0=0.001 x0=0.001 Length=0.001 units=km
New Line.94221417 phases=3 Bus1=94221420.1.2.3 Bus2=94221419.1.2.3 switch=y r1=0.001 x1=0.001 r0=0.001 x0=0.001 Length=0.001 units=km
New Line.94221462 phases=3 Bus1=94221465.1.2.3 Bus2=94221464.1.2.3 switch=y r1=0.001 x1=0.001 r0=0.001 x0=0.001 Length=0.001 units=km
New Line.94221365 phases=3 Bus1=94221367.1.2.3 Bus2=94221368.1.2.3 switch=y r1=0.001 x1=0.001 r0=0.001 x0=0.001 Length=0.001 units=km
New Line.94221392 phases=3 Bus1=94221394.1.2.3 Bus2=94221395.1.2.3 switch=y r1=0.001 x1=0.001 r0=0.001 x0=0.001 Length=0.001 units=km
New Line.2115867E:PH867E phases=3 Bus1=43054061.1.2.3 Bus2=43054060.1.2.3 switch=y r1=0.001 x1=0.001 r0=0.001 x0=0.001 Length=0.001 units=km
New Line.2115865E:2115865E phases=3 Bus1=43054022.1.2.3 Bus2=43054023.1.2.3 switch=y r1=0.001 x1=0.001 r0=0.001 x0=0.001 Length=0.001 units=km
New Line.800093E:800093E phases=3 Bus1=37749359.1.2.3 Bus2=37749360.1.2.3 switch=y r1=0.001 x1=0.001 r0=0.001 x0=0.001 Length=0.001 units=km
New Line.1769276E:FD36358 phases=3 Bus1=37695223.1.2.3 Bus2=37695224.1.2.3 switch=y r1=0.001 x1=0.001 r0=0.001 x0=0.001 Length=0.001 units=km
New Line.2259028E:PH028 phases=3 Bus1=43054119.1.2.3 Bus2=43054120.1.2.3 switch=y r1=0.001 x1=0.001 r0=0.001 x0=0.001 Length=0.001 units=km
New Line.767013E:BF91543 phases=3 Bus1=236704313.1.2.3 Bus2=236704314.1.2.3 switch=y r1=0.001 x1=0.001 r0=0.001 x0=0.001 Length=0.001 units=km
New Line.1161893E:BF90128 phases=3 Bus1=37769108.1.2.3 Bus2=37769109.1.2.3 switch=y r1=0.001 x1=0.001 r0=0.001 x0=0.001 Length=0.001 units=km
New Line.778324E:BF91544 phases=3 Bus1=218702153.1.2.3 Bus2=218702154.1.2.3 switch=y r1=0.001 x1=0.001 r0=0.001 x0=0.001 Length=0.001 units=km
New Line.778789E:BF91548 phases=2 Bus1=214303481.1.3 Bus2=214303482.1.3 switch=y r1=0.001 x1=0.001 r0=0.001 x0=0.001 Length=0.001 units=km
New Line.800091E:37693814 phases=3 Bus1=37693816.1.2.3 Bus2=37693817.1.2.3 switch=y r1=0.001 x1=0.001 r0=0.001 x0=0.001 Length=0.001 units=km
New Line.4312989E:43089427 phases=3 Bus1=43089429.1.2.3 Bus2=43089430.1.2.3 switch=y r1=0.001 x1=0.001 r0=0.001 x0=0.001 Length=0.001 units=km
New Line.767014E:216246672 phases=3 Bus1=216246674.1.2.3 Bus2=216246675.1.2.3 switch=y r1=0.001 x1=0.001 r0=0.001 x0=0.001 Length=0.001 units=km
New Line.4117796E:37694847 phases=2 Bus1=37694849.1.3 Bus2=37694850.1.3 switch=y r1=0.001 x1=0.001 r0=0.001 x0=0.001 Length=0.001 units=km
New Line.1002012E:37695238 phases=2 Bus1=37695240.1.2 Bus2=37695241.1.2 switch=y r1=0.001 x1=0.001 r0=0.001 x0=0.001 Length=0.001 units=km
New Line.1070149E:37695563 phases=3 Bus1=37695565.1.2.3 Bus2=37695566.1.2.3 switch=y r1=0.001 x1=0.001 r0=0.001 x0=0.001 Length=0.001 units=km
New Line.4685918E:37751756 phases=2 Bus1=37751758.1.2 Bus2=37751759.1.2 switch=y r1=0.001 x1=0.001 r0=0.001 x0=0.001 Length=0.001 units=km
New Line.825726E:43037824 phases=2 Bus1=43037826.2.3 Bus2=43037827.2.3 switch=y r1=0.001 x1=0.001 r0=0.001 x0=0.001 Length=0.001 units=km
New Line.800092E:37693872 phases=3 Bus1=37693874.1.2.3 Bus2=37693875.1.2.3 switch=y r1=0.001 x1=0.001 r0=0.001 x0=0.001 Length=0.001 units=km
New Line.1355205E:43035582 phases=3 Bus1=43035584.1.2.3 Bus2=43035585.1.2.3 switch=y r1=0.001 x1=0.001 r0=0.001 x0=0.001 Length=0.001 units=km
New Line.767017E:46778320 phases=3 Bus1=46778322.1.2.3 Bus2=46778323.1.2.3 switch=y r1=0.001 x1=0.001 r0=0.001 x0=0.001 Length=0.001 units=km
New Line.2059449E:43035553 phases=3 Bus1=43035555.1.2.3 Bus2=43035556.1.2.3 switch=y r1=0.001 x1=0.001 r0=0.001 x0=0.001 Length=0.001 units=km
New Line.767015E:46796484 phases=3 Bus1=46796486.1.2.3 Bus2=46796487.1.2.3 switch=y r1=0.001 x1=0.001 r0=0.001 x0=0.001 Length=0.001 units=km
New Line.778325E:214303517 phases=3 Bus1=214303519.1.2.3 Bus2=214303520.1.2.3 switch=y r1=0.001 x1=0.001 r0=0.001 x0=0.001 Length=0.001 units=km
New Line.767016E:216246735 phases=3 Bus1=216246737.1.2.3 Bus2=216246738.1.2.3 switch=y r1=0.001 x1=0.001 r0=0.001 x0=0.001 Length=0.001 units=km
New Line.1421934E:236704383 phases=2 Bus1=236704385.1.2 Bus2=236704386.1.2 switch=y r1=0.001 x1=0.001 r0=0.001 x0=0.001 Length=0.001 units=km
New Line.4782994E:37693843 phases=3 Bus1=37693845.1.2.3 Bus2=37693846.1.2.3 switch=y r1=0.001 x1=0.001 r0=0.001 x0=0.001 Length=0.001 units=km
New Line.4778833E:37693785 phases=3 Bus1=37693787.1.2.3 Bus2=37693788.1.2.3 switch=y r1=0.001 x1=0.001 r0=0.001 x0=0.001 Length=0.001 units=km
New Line.1295312E:43035611 phases=3 Bus1=43035613.1.2.3 Bus2=43035614.1.2.3 switch=y r1=0.001 x1=0.001 r0=0.001 x0=0.001 Length=0.001 units=km
New Line.877907E:46796459 phases=3 Bus1=46796461.1.2.3 Bus2=46796462.1.2.3 switch=y r1=0.001 x1=0.001 r0=0.001 x0=0.001 Length=0.001 units=km
New Line.1021327E:37694772 phases=2 Bus1=37694774.1.2 Bus2=37694775.1.2 switch=y r1=0.001 x1=0.001 r0=0.001 x0=0.001 Length=0.001 units=km
New Line.1021316E:37694797 phases=2 Bus1=37694799.1.2 Bus2=37694800.1.2 switch=y r1=0.001 x1=0.001 r0=0.001 x0=0.001 Length=0.001 units=km
New Line.1014696E:37694872 phases=2 Bus1=37694874.1.3 Bus2=37694875.1.3 switch=y r1=0.001 x1=0.001 r0=0.001 x0=0.001 Length=0.001 units=km
New Line.1002014E:37695263 phases=2 Bus1=37695265.1.2 Bus2=37695266.1.2 switch=y r1=0.001 x1=0.001 r0=0.001 x0=0.001 Length=0.001 units=km
New Line.1021318E:37695363 phases=2 Bus1=37695365.1.2 Bus2=37695366.1.2 switch=y r1=0.001 x1=0.001 r0=0.001 x0=0.001 Length=0.001 units=km
New Line.1070150E:37695588 phases=3 Bus1=37695590.1.2.3 Bus2=37695591.1.2.3 switch=y r1=0.001 x1=0.001 r0=0.001 x0=0.001 Length=0.001 units=km
New Line.2139535E:43037849 phases=2 Bus1=43037851.2.3 Bus2=43037852.2.3 switch=y r1=0.001 x1=0.001 r0=0.001 x0=0.001 Length=0.001 units=km
New Line.1014547E:43052400 phases=3 Bus1=43052402.1.2.3 Bus2=43052403.1.2.3 switch=y r1=0.001 x1=0.001 r0=0.001 x0=0.001 Length=0.001 units=km
New Line.4630838E:96348562 phases=2 Bus1=96348564.2.3 Bus2=96348565.2.3 switch=y r1=0.001 x1=0.001 r0=0.001 x0=0.001 Length=0.001 units=km
New Line.1048630E:37694397 phases=2 Bus1=37694399.2.3 Bus2=37694400.2.3 switch=y r1=0.001 x1=0.001 r0=0.001 x0=0.001 Length=0.001 units=km
New Line.4778841E:37694472 phases=2 Bus1=37694474.2.3 Bus2=37694475.2.3 switch=y r1=0.001 x1=0.001 r0=0.001 x0=0.001 Length=0.001 units=km
New Line.864641E:37693756 phases=3 Bus1=37693758.1.2.3 Bus2=37693759.1.2.3 switch=y r1=0.001 x1=0.001 r0=0.001 x0=0.001 Length=0.001 units=km
New Line.4592797E:43035640 phases=3 Bus1=43035642.1.2.3 Bus2=43035643.1.2.3 switch=y r1=0.001 x1=0.001 r0=0.001 x0=0.001 Length=0.001 units=km
New Line.778790E:46778749 phases=3 Bus1=46778751.1.2.3 Bus2=46778752.1.2.3 switch=y r1=0.001 x1=0.001 r0=0.001 x0=0.001 Length=0.001 units=km
New Line.865048E:46796434 phases=3 Bus1=46796436.1.2.3 Bus2=46796437.1.2.3 switch=y r1=0.001 x1=0.001 r0=0.001 x0=0.001 Length=0.001 units=km
New Line.865103E:46796559 phases=3 Bus1=46796561.1.2.3 Bus2=46796562.1.2.3 switch=y r1=0.001 x1=0.001 r0=0.001 x0=0.001 Length=0.001 units=km
New Line.4487582E:100647264 phases=3 Bus1=100647266.1.2.3 Bus2=100647267.1.2.3 switch=y r1=0.001 x1=0.001 r0=0.001 x0=0.001 Length=0.001 units=km
New Line.1559368E:37694597 phases=2 Bus1=37694599.2.3 Bus2=37694600.2.3 switch=y r1=0.001 x1=0.001 r0=0.001 x0=0.001 Length=0.001 units=km
New Line.4630840E:37694697 phases=2 Bus1=37694699.1.2 Bus2=37694700.1.2 switch=y r1=0.001 x1=0.001 r0=0.001 x0=0.001 Length=0.001 units=km
New Line.1021315E:37694822 phases=2 Bus1=37694824.1.2 Bus2=37694825.1.2 switch=y r1=0.001 x1=0.001 r0=0.001 x0=0.001 Length=0.001 units=km
New Line.4694512E:37694897 phases=2 Bus1=37694899.1.3 Bus2=37694900.1.3 switch=y r1=0.001 x1=0.001 r0=0.001 x0=0.001 Length=0.001 units=km
New Line.1048453E:37695022 phases=2 Bus1=37695024.1.3 Bus2=37695025.1.3 switch=y r1=0.001 x1=0.001 r0=0.001 x0=0.001 Length=0.001 units=km
New Line.1002015E:37695288 phases=2 Bus1=37695290.1.2 Bus2=37695291.1.2 switch=y r1=0.001 x1=0.001 r0=0.001 x0=0.001 Length=0.001 units=km
New Line.1021319E:37695413 phases=2 Bus1=37695415.1.2 Bus2=37695416.1.2 switch=y r1=0.001 x1=0.001 r0=0.001 x0=0.001 Length=0.001 units=km
New Line.1048131E:37695463 phases=2 Bus1=37695465.1.3 Bus2=37695466.1.3 switch=y r1=0.001 x1=0.001 r0=0.001 x0=0.001 Length=0.001 units=km
New Line.865104E:46796588 phases=3 Bus1=46796590.1.2.3 Bus2=46796591.1.2.3 switch=y r1=0.001 x1=0.001 r0=0.001 x0=0.001 Length=0.001 units=km
New Line.4187161E:207941689 phases=3 Bus1=207941691.1.2.3 Bus2=207941692.1.2.3 switch=y r1=0.001 x1=0.001 r0=0.001 x0=0.001 Length=0.001 units=km
New Line.878501E:218702193 phases=3 Bus1=218702195.1.2.3 Bus2=218702196.1.2.3 switch=y r1=0.001 x1=0.001 r0=0.001 x0=0.001 Length=0.001 units=km
New Line.1897754E:37693949 phases=3 Bus1=37693951.1.2.3 Bus2=37693952.1.2.3 switch=y r1=0.001 x1=0.001 r0=0.001 x0=0.001 Length=0.001 units=km
New Line.878507E:46796509 phases=2 Bus1=46796511.1.3 Bus2=46796512.1.3 switch=y r1=0.001 x1=0.001 r0=0.001 x0=0.001 Length=0.001 units=km
New Line.1070551E:37695613 phases=3 Bus1=37695615.1.2.3 Bus2=37695616.1.2.3 switch=y r1=0.001 x1=0.001 r0=0.001 x0=0.001 Length=0.001 units=km
New Line.4739006E:136137222 phases=3 Bus1=136137224.1.2.3 Bus2=136137225.1.2.3 switch=y r1=0.001 x1=0.001 r0=0.001 x0=0.001 Length=0.001 units=km
New Line.4729220E:196477516 phases=3 Bus1=196477518.1.2.3 Bus2=196477519.1.2.3 switch=y r1=0.001 x1=0.001 r0=0.001 x0=0.001 Length=0.001 units=km
New Line.1048631E:37694422 phases=2 Bus1=37694424.2.3 Bus2=37694425.2.3 switch=y r1=0.001 x1=0.001 r0=0.001 x0=0.001 Length=0.001 units=km
New Line.4630839E:37694497 phases=2 Bus1=37694499.2.3 Bus2=37694500.2.3 switch=y r1=0.001 x1=0.001 r0=0.001 x0=0.001 Length=0.001 units=km
New Line.4601264E:37694622 phases=2 Bus1=37694624.2.3 Bus2=37694625.2.3 switch=y r1=0.001 x1=0.001 r0=0.001 x0=0.001 Length=0.001 units=km
New Line.1048452E:37694922 phases=2 Bus1=37694924.1.3 Bus2=37694925.1.3 switch=y r1=0.001 x1=0.001 r0=0.001 x0=0.001 Length=0.001 units=km
New Line.1021314E:37694997 phases=2 Bus1=37694999.1.2 Bus2=37695000.1.2 switch=y r1=0.001 x1=0.001 r0=0.001 x0=0.001 Length=0.001 units=km
New Line.1002016E:37695313 phases=2 Bus1=37695315.1.2 Bus2=37695316.1.2 switch=y r1=0.001 x1=0.001 r0=0.001 x0=0.001 Length=0.001 units=km
New Line.1021320E:37695388 phases=2 Bus1=37695390.1.2 Bus2=37695391.1.2 switch=y r1=0.001 x1=0.001 r0=0.001 x0=0.001 Length=0.001 units=km
New Line.4782991E:37695488 phases=2 Bus1=37695490.1.3 Bus2=37695491.1.3 switch=y r1=0.001 x1=0.001 r0=0.001 x0=0.001 Length=0.001 units=km
New Line.1070552E:37695638 phases=3 Bus1=37695640.1.2.3 Bus2=37695641.1.2.3 switch=y r1=0.001 x1=0.001 r0=0.001 x0=0.001 Length=0.001 units=km
New Line.4651092E:37695754 phases=3 Bus1=37695756.1.2.3 Bus2=37695757.1.2.3 switch=y r1=0.001 x1=0.001 r0=0.001 x0=0.001 Length=0.001 units=km
New Line.4881842E:216246548 phases=3 Bus1=216246550.1.2.3 Bus2=216246551.1.2.3 switch=y r1=0.001 x1=0.001 r0=0.001 x0=0.001 Length=0.001 units=km
New Line.878509E:46778724 phases=2 Bus1=46778726.1.3 Bus2=46778727.1.3 switch=y r1=0.001 x1=0.001 r0=0.001 x0=0.001 Length=0.001 units=km
New Line.878503E:46796617 phases=3 Bus1=46796619.1.2.3 Bus2=46796620.1.2.3 switch=y r1=0.001 x1=0.001 r0=0.001 x0=0.001 Length=0.001 units=km
New Line.4727212E:135575661 phases=2 Bus1=135575663.2.3 Bus2=135575664.2.3 switch=y r1=0.001 x1=0.001 r0=0.001 x0=0.001 Length=0.001 units=km
New Line.1048638E:37694522 phases=2 Bus1=37694524.2.3 Bus2=37694525.2.3 switch=y r1=0.001 x1=0.001 r0=0.001 x0=0.001 Length=0.001 units=km
New Line.1559370E:37694647 phases=2 Bus1=37694649.2.3 Bus2=37694650.2.3 switch=y r1=0.001 x1=0.001 r0=0.001 x0=0.001 Length=0.001 units=km
New Line.1586754E:37694722 phases=2 Bus1=37694724.1.2 Bus2=37694725.1.2 switch=y r1=0.001 x1=0.001 r0=0.001 x0=0.001 Length=0.001 units=km
New Line.4493469E:37694947 phases=2 Bus1=37694949.1.3 Bus2=37694950.1.3 switch=y r1=0.001 x1=0.001 r0=0.001 x0=0.001 Length=0.001 units=km
New Line.1183926E:37695147 phases=2 Bus1=37695149.1.3 Bus2=37695150.1.3 switch=y r1=0.001 x1=0.001 r0=0.001 x0=0.001 Length=0.001 units=km
New Line.1002017E:37695338 phases=2 Bus1=37695340.1.2 Bus2=37695341.1.2 switch=y r1=0.001 x1=0.001 r0=0.001 x0=0.001 Length=0.001 units=km
New Line.1021322E:37695438 phases=2 Bus1=37695440.1.2 Bus2=37695441.1.2 switch=y r1=0.001 x1=0.001 r0=0.001 x0=0.001 Length=0.001 units=km
New Line.1048134E:37695513 phases=2 Bus1=37695515.1.3 Bus2=37695516.1.3 switch=y r1=0.001 x1=0.001 r0=0.001 x0=0.001 Length=0.001 units=km
New Line.1184549E:37695779 phases=3 Bus1=37695781.1.2.3 Bus2=37695782.1.2.3 switch=y r1=0.001 x1=0.001 r0=0.001 x0=0.001 Length=0.001 units=km
New Line.1183949E:37695876 phases=3 Bus1=37695878.1.2.3 Bus2=37695879.1.2.3 switch=y r1=0.001 x1=0.001 r0=0.001 x0=0.001 Length=0.001 units=km
New Line.2338858E:43052454 phases=3 Bus1=43052456.1.2.3 Bus2=43052457.1.2.3 switch=y r1=0.001 x1=0.001 r0=0.001 x0=0.001 Length=0.001 units=km
New Line.1559372E:37694318 phases=2 Bus1=37694320.2.3 Bus2=37694321.2.3 switch=y r1=0.001 x1=0.001 r0=0.001 x0=0.001 Length=0.001 units=km
New Line.1048640E:37694547 phases=2 Bus1=37694549.2.3 Bus2=37694550.2.3 switch=y r1=0.001 x1=0.001 r0=0.001 x0=0.001 Length=0.001 units=km
New Line.4778816E:140573194 phases=3 Bus1=140573196.1.2.3 Bus2=140573197.1.2.3 switch=y r1=0.001 x1=0.001 r0=0.001 x0=0.001 Length=0.001 units=km
New Line.4778815E:37693978 phases=3 Bus1=37693980.1.2.3 Bus2=37693981.1.2.3 switch=y r1=0.001 x1=0.001 r0=0.001 x0=0.001 Length=0.001 units=km
New Line.878512E:46778624 phases=2 Bus1=46778626.1.3 Bus2=46778627.1.3 switch=y r1=0.001 x1=0.001 r0=0.001 x0=0.001 Length=0.001 units=km
New Line.951360E:46796642 phases=3 Bus1=46796644.1.2.3 Bus2=46796645.1.2.3 switch=y r1=0.001 x1=0.001 r0=0.001 x0=0.001 Length=0.001 units=km
New Line.918190E:218702286 phases=3 Bus1=218702288.1.2.3 Bus2=218702289.1.2.3 switch=y r1=0.001 x1=0.001 r0=0.001 x0=0.001 Length=0.001 units=km
New Line.928517E:37694007 phases=3 Bus1=37694009.1.2.3 Bus2=37694010.1.2.3 switch=y r1=0.001 x1=0.001 r0=0.001 x0=0.001 Length=0.001 units=km
New Line.1014699E:37694972 phases=2 Bus1=37694974.1.3 Bus2=37694975.1.3 switch=y r1=0.001 x1=0.001 r0=0.001 x0=0.001 Length=0.001 units=km
New Line.1183927E:37695047 phases=2 Bus1=37695049.1.3 Bus2=37695050.1.3 switch=y r1=0.001 x1=0.001 r0=0.001 x0=0.001 Length=0.001 units=km
New Line.1183935E:37695072 phases=2 Bus1=37695074.1.2 Bus2=37695075.1.2 switch=y r1=0.001 x1=0.001 r0=0.001 x0=0.001 Length=0.001 units=km
New Line.1021323E:37695172 phases=2 Bus1=37695174.1.2 Bus2=37695175.1.2 switch=y r1=0.001 x1=0.001 r0=0.001 x0=0.001 Length=0.001 units=km
New Line.1048136E:37695538 phases=2 Bus1=37695540.1.3 Bus2=37695541.1.3 switch=y r1=0.001 x1=0.001 r0=0.001 x0=0.001 Length=0.001 units=km
New Line.1184770E:37695729 phases=2 Bus1=37695731.1.3 Bus2=37695732.1.3 switch=y r1=0.001 x1=0.001 r0=0.001 x0=0.001 Length=0.001 units=km
New Line.1183948E:37695901 phases=3 Bus1=37695903.1.2.3 Bus2=37695904.1.2.3 switch=y r1=0.001 x1=0.001 r0=0.001 x0=0.001 Length=0.001 units=km
New Line.K8210Y:37752767 phases=3 Bus1=37752769.1.2.3 Bus2=37752770.1.2.3 switch=y r1=0.001 x1=0.001 r0=0.001 x0=0.001 Length=0.001 units=km
New Line.725958E:43052429 phases=2 Bus1=43052431.1.3 Bus2=43052432.1.3 switch=y r1=0.001 x1=0.001 r0=0.001 x0=0.001 Length=0.001 units=km
New Line.778318E:43053862 phases=3 Bus1=43053864.1.2.3 Bus2=43053865.1.2.3 switch=y r1=0.001 x1=0.001 r0=0.001 x0=0.001 Length=0.001 units=km
New Line.1048642E:37694572 phases=2 Bus1=37694574.2.3 Bus2=37694575.2.3 switch=y r1=0.001 x1=0.001 r0=0.001 x0=0.001 Length=0.001 units=km
...

! Loads
...